13
Optimized using ADF on the TPSS-D4/TZP level of theory
H	      2.1338857497	      0.3525735943	      1.6049522994
N	      1.7772363404	     -0.0989455788	      0.7639701681
H	      2.0335360335	      0.4887376012	     -0.0312426392
C	      0.3145722350	     -0.1774325555	      0.8258040243
H	      0.0236132106	     -1.1008100427	      1.3385071449
C	     -0.3769335747	      1.0107759147	      1.5334480422
H	     -0.0017043674	      1.0853128224	      2.5586672938
H	     -0.1541136916	      1.9457838657	      1.0108725419
H	     -1.4613146695	      0.8707110901	      1.5726739921
C	     -0.2086948443	     -0.2575520472	     -0.5975266799
O	      0.3544784264	      0.1910118728	     -1.5773534615
O	     -1.4339181229	     -0.8586933170	     -0.6588088556
H	     -1.7002427251	     -0.8166732199	     -1.6004638705
